Version 4
SHEET 1 1540 680
WIRE -336 -224 -416 -224
WIRE -176 -224 -256 -224
WIRE 48 -224 -176 -224
WIRE 288 -224 48 -224
WIRE 352 -224 288 -224
WIRE 496 -224 496 -256
WIRE 496 -224 416 -224
WIRE 720 -224 496 -224
WIRE 832 -224 720 -224
WIRE -976 -192 -1040 -192
WIRE -880 -192 -896 -192
WIRE -704 -192 -768 -192
WIRE -608 -192 -624 -192
WIRE -176 -176 -176 -224
WIRE 48 -176 48 -224
WIRE 288 -176 288 -224
WIRE 496 -176 496 -224
WIRE 832 -176 832 -224
WIRE -1040 -160 -1040 -192
WIRE -768 -160 -768 -192
WIRE -416 -160 -416 -224
WIRE 560 -160 544 -160
WIRE 720 -160 720 -224
WIRE -224 -96 -240 -96
WIRE -1040 -64 -1040 -80
WIRE -768 -64 -768 -80
WIRE -608 -64 -768 -64
WIRE -416 -32 -416 -80
WIRE -176 -32 -176 -80
WIRE -176 -32 -416 -32
WIRE -96 -32 -176 -32
WIRE 48 -32 48 -96
WIRE 48 -32 -32 -32
WIRE 288 -32 288 -96
WIRE 496 -32 496 -80
WIRE 496 -32 288 -32
WIRE 576 -32 496 -32
WIRE 720 -32 720 -96
WIRE 720 -32 656 -32
WIRE 832 -32 832 -96
WIRE 832 -32 720 -32
WIRE -416 0 -416 -32
FLAG -416 0 0
FLAG -1040 -64 0
FLAG -880 -192 vg
FLAG -240 -96 vg
FLAG -608 -192 _vg
FLAG 560 -160 _vg
FLAG 496 -256 sec_com
FLAG -608 -64 sec_com
SYMBOL voltage -416 -176 R0
WINDOW 123 0 0 Left 0
WINDOW 39 0 0 Left 0
SYMATTR InstName V1
SYMATTR Value 30
SYMBOL cap -32 -48 R90
WINDOW 0 0 32 VBottom 2
WINDOW 3 32 32 VTop 2
SYMATTR InstName C1
SYMATTR Value 24e-6
SYMBOL cap 704 -160 R0
SYMATTR InstName C3
SYMATTR Value 94e-6
SYMBOL res 816 -192 R0
SYMATTR InstName R1
SYMATTR Value 5
SYMBOL nmos -224 -176 R0
SYMATTR InstName M1
SYMATTR Value IRFP90N20D
SYMBOL ind -352 -208 R270
WINDOW 0 32 56 VTop 2
WINDOW 3 5 56 VBottom 2
SYMATTR InstName L1
SYMATTR Value 33e-6
SYMBOL voltage -1040 -176 R0
WINDOW 3 24 96 Invisible 2
WINDOW 123 0 0 Left 0
WINDOW 39 0 0 Left 0
SYMATTR Value PULSE(0 12 0 10e-9 10e-9 4.898e-06 10e-6)
SYMATTR InstName V2
SYMBOL res -880 -208 R90
WINDOW 0 0 56 VBottom 2
WINDOW 3 32 56 VTop 2
SYMATTR InstName R2
SYMATTR Value 2
SYMBOL ind2 32 -80 M180
WINDOW 0 36 80 Left 2
WINDOW 3 36 40 Left 2
SYMATTR InstName L3
SYMATTR Value 42e-6
SYMATTR Type ind
SYMBOL ind2 304 -80 R180
WINDOW 0 36 80 Left 2
WINDOW 3 36 40 Left 2
SYMATTR InstName L4
SYMATTR Value 116.67e-6
SYMATTR Type ind
SYMBOL voltage -768 -176 R0
WINDOW 3 24 96 Invisible 2
WINDOW 123 0 0 Left 0
WINDOW 39 0 0 Left 0
SYMATTR Value PULSE(12 0 9.800e-6 10e-9 10e-9 5.298e-06 10e-6)
SYMATTR InstName V3
SYMBOL res -608 -208 R90
WINDOW 0 0 56 VBottom 2
WINDOW 3 32 56 VTop 2
SYMATTR InstName R3
SYMATTR Value 2
SYMBOL nmos 544 -80 R180
SYMATTR InstName M2
SYMATTR Value IRFP90N20D
SYMBOL cap 352 -208 R270
WINDOW 0 32 32 VTop 2
WINDOW 3 0 32 VBottom 2
SYMATTR InstName C2
SYMATTR Value 24e-6
SYMBOL ind 672 -48 R90
WINDOW 0 5 56 VBottom 2
WINDOW 3 32 56 VTop 2
SYMATTR InstName L2
SYMATTR Value 33e-6
TEXT -1088 -16 Left 2 !.tran 0 40e-3 0 startup
TEXT 104 -192 Left 2 !K L3 L4 1
TEXT -1088 8 Left 2 !.lib opamp.sub
